/*--------------------------------*- C++ -*----------------------------------*\
| =========                 |                                                 |
| \\      /  F ield         | OpenFOAM: The Open Source CFD Toolbox           |
|  \\    /   O peration     | Version:  2.3.1                                 |
|   \\  /    A nd           | Web:      www.OpenFOAM.org                      |
|    \\/     M anipulation  |                                                 |
\*---------------------------------------------------------------------------*/
FoamFile
{
    version     2.0;
    format      ascii;
    class       dictionary;
    object      blockMeshDict;
}
// * * * * * * * * * * * * * * * * * * * * * * * * * * * * * * * * * * * * * //

convertToMeters 0.1;

vertices
(
       _VERTEX_
);

blocks
(
       _HEX_
);

edges
(
);

boundary
(
    inlet
    {
        type patch;
        faces
        (
		_INLET_FACES_
        );
    }
    outlet
    {
        type patch;
        faces
        (
		_OUTLET_FACES_
        );
    }
    wall_inner
    {
        type wall;
        faces
        (
		_WALL_IN_FACES_
        );
    }
    wall_outer
    {
        type wall;
        faces
        (
		_WALL_OUT_FACES_
        );
    }
);

mergePatchPairs
(
);

// ************************************************************************* //
