/*--------------------------------*- C++ -*----------------------------------*\
| =========                 |                                                 |
| \\      /  F ield         | OpenFOAM: The Open Source CFD Toolbox           |
|  \\    /   O peration     | Version:  2.3.1                                 |
|   \\  /    A nd           | Web:      www.OpenFOAM.org                      |
|    \\/     M anipulation  |                                                 |
\*---------------------------------------------------------------------------*/
FoamFile
{
    version     2.0;
    format      ascii;
    class       dictionary;
    object      blockMeshDict;
}
// * * * * * * * * * * * * * * * * * * * * * * * * * * * * * * * * * * * * * //

convertToMeters 0.1;

vertices
(
       (-2.5   1.25  0.  )
	(-2.5         1.24922332  0.        )
	(-2.5         1.24821228  0.        )
	(-2.5         1.24689614  0.        )
	(-2.5         1.24518284  0.        )
	(-2.5         1.24295253  0.        )
	(-2.5         1.24004921  0.        )
	(-2.5         1.23626977  0.        )
	(-2.5         1.23134986  0.        )
	(-2.5        1.2249453  0.       )
	(-2.5        1.2166081  0.       )
	(-2.5         1.20575507  0.        )
	(-2.5         1.19162702  0.        )
	(-2.5         1.17323567  0.        )
	(-2.5         1.14929455  0.        )
	(-2.5         1.11812894  0.        )
	(-2.5         1.07755877  0.        )
	(-2.5         1.02474613  0.        )
	(-2.5         0.95599671  0.        )
	(-2.5         0.86650143  0.        )
	(-2.5   0.75  0.  )
	(-2.5         0.63349857  0.        )
	(-2.5         0.54400329  0.        )
	(-2.5         0.47525387  0.        )
	(-2.5         0.42244123  0.        )
	(-2.5         0.38187106  0.        )
	(-2.5         0.35070545  0.        )
	(-2.5         0.32676433  0.        )
	(-2.5         0.30837298  0.        )
	(-2.5         0.29424493  0.        )
	(-2.5        0.2833919  0.       )
	(-2.5        0.2750547  0.       )
	(-2.5         0.26865014  0.        )
	(-2.5         0.26373023  0.        )
	(-2.5         0.25995079  0.        )
	(-2.5         0.25704747  0.        )
	(-2.5         0.25481716  0.        )
	(-2.5         0.25310386  0.        )
	(-2.5         0.25178772  0.        )
	(-2.5         0.25077668  0.        )
	(-2.5   0.25  0.  )
	(-2.5   1.25  0.1 )
	(-2.5         1.24922332  0.1       )
	(-2.5         1.24821228  0.1       )
	(-2.5         1.24689614  0.1       )
	(-2.5         1.24518284  0.1       )
	(-2.5         1.24295253  0.1       )
	(-2.5         1.24004921  0.1       )
	(-2.5         1.23626977  0.1       )
	(-2.5         1.23134986  0.1       )
	(-2.5        1.2249453  0.1      )
	(-2.5        1.2166081  0.1      )
	(-2.5         1.20575507  0.1       )
	(-2.5         1.19162702  0.1       )
	(-2.5         1.17323567  0.1       )
	(-2.5         1.14929455  0.1       )
	(-2.5         1.11812894  0.1       )
	(-2.5         1.07755877  0.1       )
	(-2.5         1.02474613  0.1       )
	(-2.5         0.95599671  0.1       )
	(-2.5         0.86650143  0.1       )
	(-2.5   0.75  0.1 )
	(-2.5         0.63349857  0.1       )
	(-2.5         0.54400329  0.1       )
	(-2.5         0.47525387  0.1       )
	(-2.5         0.42244123  0.1       )
	(-2.5         0.38187106  0.1       )
	(-2.5         0.35070545  0.1       )
	(-2.5         0.32676433  0.1       )
	(-2.5         0.30837298  0.1       )
	(-2.5         0.29424493  0.1       )
	(-2.5        0.2833919  0.1      )
	(-2.5        0.2750547  0.1      )
	(-2.5         0.26865014  0.1       )
	(-2.5         0.26373023  0.1       )
	(-2.5         0.25995079  0.1       )
	(-2.5         0.25704747  0.1       )
	(-2.5         0.25481716  0.1       )
	(-2.5         0.25310386  0.1       )
	(-2.5         0.25178772  0.1       )
	(-2.5         0.25077668  0.1       )
	(-2.5   0.25  0.1 )
	(-2.42857143  1.25        0.        )
	(-2.42857143  1.24922332  0.        )
	(-2.42857143  1.24821228  0.        )
	(-2.42857143  1.24689614  0.        )
	(-2.42857143  1.24518284  0.        )
	(-2.42857143  1.24295253  0.        )
	(-2.42857143  1.24004921  0.        )
	(-2.42857143  1.23626977  0.        )
	(-2.42857143  1.23134986  0.        )
	(-2.42857143  1.2249453   0.        )
	(-2.42857143  1.2166081   0.        )
	(-2.42857143  1.20575507  0.        )
	(-2.42857143  1.19162702  0.        )
	(-2.42857143  1.17323567  0.        )
	(-2.42857143  1.14929455  0.        )
	(-2.42857143  1.11812894  0.        )
	(-2.42857143  1.07755877  0.        )
	(-2.42857143  1.02474613  0.        )
	(-2.42857143  0.95599671  0.        )
	(-2.42857143  0.86650143  0.        )
	(-2.42857143  0.75        0.        )
	(-2.42857143  0.63349857  0.        )
	(-2.42857143  0.54400329  0.        )
	(-2.42857143  0.47525387  0.        )
	(-2.42857143  0.42244123  0.        )
	(-2.42857143  0.38187106  0.        )
	(-2.42857143  0.35070545  0.        )
	(-2.42857143  0.32676433  0.        )
	(-2.42857143  0.30837298  0.        )
	(-2.42857143  0.29424493  0.        )
	(-2.42857143  0.2833919   0.        )
	(-2.42857143  0.2750547   0.        )
	(-2.42857143  0.26865014  0.        )
	(-2.42857143  0.26373023  0.        )
	(-2.42857143  0.25995079  0.        )
	(-2.42857143  0.25704747  0.        )
	(-2.42857143  0.25481716  0.        )
	(-2.42857143  0.25310386  0.        )
	(-2.42857143  0.25178772  0.        )
	(-2.42857143  0.25077668  0.        )
	(-2.42857143  0.25        0.        )
	(-2.42857143  1.25        0.1       )
	(-2.42857143  1.24922332  0.1       )
	(-2.42857143  1.24821228  0.1       )
	(-2.42857143  1.24689614  0.1       )
	(-2.42857143  1.24518284  0.1       )
	(-2.42857143  1.24295253  0.1       )
	(-2.42857143  1.24004921  0.1       )
	(-2.42857143  1.23626977  0.1       )
	(-2.42857143  1.23134986  0.1       )
	(-2.42857143  1.2249453   0.1       )
	(-2.42857143  1.2166081   0.1       )
	(-2.42857143  1.20575507  0.1       )
	(-2.42857143  1.19162702  0.1       )
	(-2.42857143  1.17323567  0.1       )
	(-2.42857143  1.14929455  0.1       )
	(-2.42857143  1.11812894  0.1       )
	(-2.42857143  1.07755877  0.1       )
	(-2.42857143  1.02474613  0.1       )
	(-2.42857143  0.95599671  0.1       )
	(-2.42857143  0.86650143  0.1       )
	(-2.42857143  0.75        0.1       )
	(-2.42857143  0.63349857  0.1       )
	(-2.42857143  0.54400329  0.1       )
	(-2.42857143  0.47525387  0.1       )
	(-2.42857143  0.42244123  0.1       )
	(-2.42857143  0.38187106  0.1       )
	(-2.42857143  0.35070545  0.1       )
	(-2.42857143  0.32676433  0.1       )
	(-2.42857143  0.30837298  0.1       )
	(-2.42857143  0.29424493  0.1       )
	(-2.42857143  0.2833919   0.1       )
	(-2.42857143  0.2750547   0.1       )
	(-2.42857143  0.26865014  0.1       )
	(-2.42857143  0.26373023  0.1       )
	(-2.42857143  0.25995079  0.1       )
	(-2.42857143  0.25704747  0.1       )
	(-2.42857143  0.25481716  0.1       )
	(-2.42857143  0.25310386  0.1       )
	(-2.42857143  0.25178772  0.1       )
	(-2.42857143  0.25077668  0.1       )
	(-2.42857143  0.25        0.1       )
	(-2.35714286  1.25        0.        )
	(-2.35714286  1.24922332  0.        )
	(-2.35714286  1.24821228  0.        )
	(-2.35714286  1.24689614  0.        )
	(-2.35714286  1.24518284  0.        )
	(-2.35714286  1.24295253  0.        )
	(-2.35714286  1.24004921  0.        )
	(-2.35714286  1.23626977  0.        )
	(-2.35714286  1.23134986  0.        )
	(-2.35714286  1.2249453   0.        )
	(-2.35714286  1.2166081   0.        )
	(-2.35714286  1.20575507  0.        )
	(-2.35714286  1.19162702  0.        )
	(-2.35714286  1.17323567  0.        )
	(-2.35714286  1.14929455  0.        )
	(-2.35714286  1.11812894  0.        )
	(-2.35714286  1.07755877  0.        )
	(-2.35714286  1.02474613  0.        )
	(-2.35714286  0.95599671  0.        )
	(-2.35714286  0.86650143  0.        )
	(-2.35714286  0.75        0.        )
	(-2.35714286  0.63349857  0.        )
	(-2.35714286  0.54400329  0.        )
	(-2.35714286  0.47525387  0.        )
	(-2.35714286  0.42244123  0.        )
	(-2.35714286  0.38187106  0.        )
	(-2.35714286  0.35070545  0.        )
	(-2.35714286  0.32676433  0.        )
	(-2.35714286  0.30837298  0.        )
	(-2.35714286  0.29424493  0.        )
	(-2.35714286  0.2833919   0.        )
	(-2.35714286  0.2750547   0.        )
	(-2.35714286  0.26865014  0.        )
	(-2.35714286  0.26373023  0.        )
	(-2.35714286  0.25995079  0.        )
	(-2.35714286  0.25704747  0.        )
	(-2.35714286  0.25481716  0.        )
	(-2.35714286  0.25310386  0.        )
	(-2.35714286  0.25178772  0.        )
	(-2.35714286  0.25077668  0.        )
	(-2.35714286  0.25        0.        )
	(-2.35714286  1.25        0.1       )
	(-2.35714286  1.24922332  0.1       )
	(-2.35714286  1.24821228  0.1       )
	(-2.35714286  1.24689614  0.1       )
	(-2.35714286  1.24518284  0.1       )
	(-2.35714286  1.24295253  0.1       )
	(-2.35714286  1.24004921  0.1       )
	(-2.35714286  1.23626977  0.1       )
	(-2.35714286  1.23134986  0.1       )
	(-2.35714286  1.2249453   0.1       )
	(-2.35714286  1.2166081   0.1       )
	(-2.35714286  1.20575507  0.1       )
	(-2.35714286  1.19162702  0.1       )
	(-2.35714286  1.17323567  0.1       )
	(-2.35714286  1.14929455  0.1       )
	(-2.35714286  1.11812894  0.1       )
	(-2.35714286  1.07755877  0.1       )
	(-2.35714286  1.02474613  0.1       )
	(-2.35714286  0.95599671  0.1       )
	(-2.35714286  0.86650143  0.1       )
	(-2.35714286  0.75        0.1       )
	(-2.35714286  0.63349857  0.1       )
	(-2.35714286  0.54400329  0.1       )
	(-2.35714286  0.47525387  0.1       )
	(-2.35714286  0.42244123  0.1       )
	(-2.35714286  0.38187106  0.1       )
	(-2.35714286  0.35070545  0.1       )
	(-2.35714286  0.32676433  0.1       )
	(-2.35714286  0.30837298  0.1       )
	(-2.35714286  0.29424493  0.1       )
	(-2.35714286  0.2833919   0.1       )
	(-2.35714286  0.2750547   0.1       )
	(-2.35714286  0.26865014  0.1       )
	(-2.35714286  0.26373023  0.1       )
	(-2.35714286  0.25995079  0.1       )
	(-2.35714286  0.25704747  0.1       )
	(-2.35714286  0.25481716  0.1       )
	(-2.35714286  0.25310386  0.1       )
	(-2.35714286  0.25178772  0.1       )
	(-2.35714286  0.25077668  0.1       )
	(-2.35714286  0.25        0.1       )
	(-2.28571429  1.25        0.        )
	(-2.28571429  1.24922332  0.        )
	(-2.28571429  1.24821228  0.        )
	(-2.28571429  1.24689614  0.        )
	(-2.28571429  1.24518284  0.        )
	(-2.28571429  1.24295253  0.        )
	(-2.28571429  1.24004921  0.        )
	(-2.28571429  1.23626977  0.        )
	(-2.28571429  1.23134986  0.        )
	(-2.28571429  1.2249453   0.        )
	(-2.28571429  1.2166081   0.        )
	(-2.28571429  1.20575507  0.        )
	(-2.28571429  1.19162702  0.        )
	(-2.28571429  1.17323567  0.        )
	(-2.28571429  1.14929455  0.        )
	(-2.28571429  1.11812894  0.        )
	(-2.28571429  1.07755877  0.        )
	(-2.28571429  1.02474613  0.        )
	(-2.28571429  0.95599671  0.        )
	(-2.28571429  0.86650143  0.        )
	(-2.28571429  0.75        0.        )
	(-2.28571429  0.63349857  0.        )
	(-2.28571429  0.54400329  0.        )
	(-2.28571429  0.47525387  0.        )
	(-2.28571429  0.42244123  0.        )
	(-2.28571429  0.38187106  0.        )
	(-2.28571429  0.35070545  0.        )
	(-2.28571429  0.32676433  0.        )
	(-2.28571429  0.30837298  0.        )
	(-2.28571429  0.29424493  0.        )
	(-2.28571429  0.2833919   0.        )
	(-2.28571429  0.2750547   0.        )
	(-2.28571429  0.26865014  0.        )
	(-2.28571429  0.26373023  0.        )
	(-2.28571429  0.25995079  0.        )
	(-2.28571429  0.25704747  0.        )
	(-2.28571429  0.25481716  0.        )
	(-2.28571429  0.25310386  0.        )
	(-2.28571429  0.25178772  0.        )
	(-2.28571429  0.25077668  0.        )
	(-2.28571429  0.25        0.        )
	(-2.28571429  1.25        0.1       )
	(-2.28571429  1.24922332  0.1       )
	(-2.28571429  1.24821228  0.1       )
	(-2.28571429  1.24689614  0.1       )
	(-2.28571429  1.24518284  0.1       )
	(-2.28571429  1.24295253  0.1       )
	(-2.28571429  1.24004921  0.1       )
	(-2.28571429  1.23626977  0.1       )
	(-2.28571429  1.23134986  0.1       )
	(-2.28571429  1.2249453   0.1       )
	(-2.28571429  1.2166081   0.1       )
	(-2.28571429  1.20575507  0.1       )
	(-2.28571429  1.19162702  0.1       )
	(-2.28571429  1.17323567  0.1       )
	(-2.28571429  1.14929455  0.1       )
	(-2.28571429  1.11812894  0.1       )
	(-2.28571429  1.07755877  0.1       )
	(-2.28571429  1.02474613  0.1       )
	(-2.28571429  0.95599671  0.1       )
	(-2.28571429  0.86650143  0.1       )
	(-2.28571429  0.75        0.1       )
	(-2.28571429  0.63349857  0.1       )
	(-2.28571429  0.54400329  0.1       )
	(-2.28571429  0.47525387  0.1       )
	(-2.28571429  0.42244123  0.1       )
	(-2.28571429  0.38187106  0.1       )
	(-2.28571429  0.35070545  0.1       )
	(-2.28571429  0.32676433  0.1       )
	(-2.28571429  0.30837298  0.1       )
	(-2.28571429  0.29424493  0.1       )
	(-2.28571429  0.2833919   0.1       )
	(-2.28571429  0.2750547   0.1       )
	(-2.28571429  0.26865014  0.1       )
	(-2.28571429  0.26373023  0.1       )
	(-2.28571429  0.25995079  0.1       )
	(-2.28571429  0.25704747  0.1       )
	(-2.28571429  0.25481716  0.1       )
	(-2.28571429  0.25310386  0.1       )
	(-2.28571429  0.25178772  0.1       )
	(-2.28571429  0.25077668  0.1       )
	(-2.28571429  0.25        0.1       )
	(-2.21428571  1.25        0.        )
	(-2.21428571  1.24922332  0.        )
	(-2.21428571  1.24821228  0.        )
	(-2.21428571  1.24689614  0.        )
	(-2.21428571  1.24518284  0.        )
	(-2.21428571  1.24295253  0.        )
	(-2.21428571  1.24004921  0.        )
	(-2.21428571  1.23626977  0.        )
	(-2.21428571  1.23134986  0.        )
	(-2.21428571  1.2249453   0.        )
	(-2.21428571  1.2166081   0.        )
	(-2.21428571  1.20575507  0.        )
	(-2.21428571  1.19162702  0.        )
	(-2.21428571  1.17323567  0.        )
	(-2.21428571  1.14929455  0.        )
	(-2.21428571  1.11812894  0.        )
	(-2.21428571  1.07755877  0.        )
	(-2.21428571  1.02474613  0.        )
	(-2.21428571  0.95599671  0.        )
	(-2.21428571  0.86650143  0.        )
	(-2.21428571  0.75        0.        )
	(-2.21428571  0.63349857  0.        )
	(-2.21428571  0.54400329  0.        )
	(-2.21428571  0.47525387  0.        )
	(-2.21428571  0.42244123  0.        )
	(-2.21428571  0.38187106  0.        )
	(-2.21428571  0.35070545  0.        )
	(-2.21428571  0.32676433  0.        )
	(-2.21428571  0.30837298  0.        )
	(-2.21428571  0.29424493  0.        )
	(-2.21428571  0.2833919   0.        )
	(-2.21428571  0.2750547   0.        )
	(-2.21428571  0.26865014  0.        )
	(-2.21428571  0.26373023  0.        )
	(-2.21428571  0.25995079  0.        )
	(-2.21428571  0.25704747  0.        )
	(-2.21428571  0.25481716  0.        )
	(-2.21428571  0.25310386  0.        )
	(-2.21428571  0.25178772  0.        )
	(-2.21428571  0.25077668  0.        )
	(-2.21428571  0.25        0.        )
	(-2.21428571  1.25        0.1       )
	(-2.21428571  1.24922332  0.1       )
	(-2.21428571  1.24821228  0.1       )
	(-2.21428571  1.24689614  0.1       )
	(-2.21428571  1.24518284  0.1       )
	(-2.21428571  1.24295253  0.1       )
	(-2.21428571  1.24004921  0.1       )
	(-2.21428571  1.23626977  0.1       )
	(-2.21428571  1.23134986  0.1       )
	(-2.21428571  1.2249453   0.1       )
	(-2.21428571  1.2166081   0.1       )
	(-2.21428571  1.20575507  0.1       )
	(-2.21428571  1.19162702  0.1       )
	(-2.21428571  1.17323567  0.1       )
	(-2.21428571  1.14929455  0.1       )
	(-2.21428571  1.11812894  0.1       )
	(-2.21428571  1.07755877  0.1       )
	(-2.21428571  1.02474613  0.1       )
	(-2.21428571  0.95599671  0.1       )
	(-2.21428571  0.86650143  0.1       )
	(-2.21428571  0.75        0.1       )
	(-2.21428571  0.63349857  0.1       )
	(-2.21428571  0.54400329  0.1       )
	(-2.21428571  0.47525387  0.1       )
	(-2.21428571  0.42244123  0.1       )
	(-2.21428571  0.38187106  0.1       )
	(-2.21428571  0.35070545  0.1       )
	(-2.21428571  0.32676433  0.1       )
	(-2.21428571  0.30837298  0.1       )
	(-2.21428571  0.29424493  0.1       )
	(-2.21428571  0.2833919   0.1       )
	(-2.21428571  0.2750547   0.1       )
	(-2.21428571  0.26865014  0.1       )
	(-2.21428571  0.26373023  0.1       )
	(-2.21428571  0.25995079  0.1       )
	(-2.21428571  0.25704747  0.1       )
	(-2.21428571  0.25481716  0.1       )
	(-2.21428571  0.25310386  0.1       )
	(-2.21428571  0.25178772  0.1       )
	(-2.21428571  0.25077668  0.1       )
	(-2.21428571  0.25        0.1       )
	(-2.14285714  1.25        0.        )
	(-2.14285714  1.24922332  0.        )
	(-2.14285714  1.24821228  0.        )
	(-2.14285714  1.24689614  0.        )
	(-2.14285714  1.24518284  0.        )
	(-2.14285714  1.24295253  0.        )
	(-2.14285714  1.24004921  0.        )
	(-2.14285714  1.23626977  0.        )
	(-2.14285714  1.23134986  0.        )
	(-2.14285714  1.2249453   0.        )
	(-2.14285714  1.2166081   0.        )
	(-2.14285714  1.20575507  0.        )
	(-2.14285714  1.19162702  0.        )
	(-2.14285714  1.17323567  0.        )
	(-2.14285714  1.14929455  0.        )
	(-2.14285714  1.11812894  0.        )
	(-2.14285714  1.07755877  0.        )
	(-2.14285714  1.02474613  0.        )
	(-2.14285714  0.95599671  0.        )
	(-2.14285714  0.86650143  0.        )
	(-2.14285714  0.75        0.        )
	(-2.14285714  0.63349857  0.        )
	(-2.14285714  0.54400329  0.        )
	(-2.14285714  0.47525387  0.        )
	(-2.14285714  0.42244123  0.        )
	(-2.14285714  0.38187106  0.        )
	(-2.14285714  0.35070545  0.        )
	(-2.14285714  0.32676433  0.        )
	(-2.14285714  0.30837298  0.        )
	(-2.14285714  0.29424493  0.        )
	(-2.14285714  0.2833919   0.        )
	(-2.14285714  0.2750547   0.        )
	(-2.14285714  0.26865014  0.        )
	(-2.14285714  0.26373023  0.        )
	(-2.14285714  0.25995079  0.        )
	(-2.14285714  0.25704747  0.        )
	(-2.14285714  0.25481716  0.        )
	(-2.14285714  0.25310386  0.        )
	(-2.14285714  0.25178772  0.        )
	(-2.14285714  0.25077668  0.        )
	(-2.14285714  0.25        0.        )
	(-2.14285714  1.25        0.1       )
	(-2.14285714  1.24922332  0.1       )
	(-2.14285714  1.24821228  0.1       )
	(-2.14285714  1.24689614  0.1       )
	(-2.14285714  1.24518284  0.1       )
	(-2.14285714  1.24295253  0.1       )
	(-2.14285714  1.24004921  0.1       )
	(-2.14285714  1.23626977  0.1       )
	(-2.14285714  1.23134986  0.1       )
	(-2.14285714  1.2249453   0.1       )
	(-2.14285714  1.2166081   0.1       )
	(-2.14285714  1.20575507  0.1       )
	(-2.14285714  1.19162702  0.1       )
	(-2.14285714  1.17323567  0.1       )
	(-2.14285714  1.14929455  0.1       )
	(-2.14285714  1.11812894  0.1       )
	(-2.14285714  1.07755877  0.1       )
	(-2.14285714  1.02474613  0.1       )
	(-2.14285714  0.95599671  0.1       )
	(-2.14285714  0.86650143  0.1       )
	(-2.14285714  0.75        0.1       )
	(-2.14285714  0.63349857  0.1       )
	(-2.14285714  0.54400329  0.1       )
	(-2.14285714  0.47525387  0.1       )
	(-2.14285714  0.42244123  0.1       )
	(-2.14285714  0.38187106  0.1       )
	(-2.14285714  0.35070545  0.1       )
	(-2.14285714  0.32676433  0.1       )
	(-2.14285714  0.30837298  0.1       )
	(-2.14285714  0.29424493  0.1       )
	(-2.14285714  0.2833919   0.1       )
	(-2.14285714  0.2750547   0.1       )
	(-2.14285714  0.26865014  0.1       )
	(-2.14285714  0.26373023  0.1       )
	(-2.14285714  0.25995079  0.1       )
	(-2.14285714  0.25704747  0.1       )
	(-2.14285714  0.25481716  0.1       )
	(-2.14285714  0.25310386  0.1       )
	(-2.14285714  0.25178772  0.1       )
	(-2.14285714  0.25077668  0.1       )
	(-2.14285714  0.25        0.1       )
	(-2.07142857  1.25        0.        )
	(-2.07142857  1.24922332  0.        )
	(-2.07142857  1.24821228  0.        )
	(-2.07142857  1.24689614  0.        )
	(-2.07142857  1.24518284  0.        )
	(-2.07142857  1.24295253  0.        )
	(-2.07142857  1.24004921  0.        )
	(-2.07142857  1.23626977  0.        )
	(-2.07142857  1.23134986  0.        )
	(-2.07142857  1.2249453   0.        )
	(-2.07142857  1.2166081   0.        )
	(-2.07142857  1.20575507  0.        )
	(-2.07142857  1.19162702  0.        )
	(-2.07142857  1.17323567  0.        )
	(-2.07142857  1.14929455  0.        )
	(-2.07142857  1.11812894  0.        )
	(-2.07142857  1.07755877  0.        )
	(-2.07142857  1.02474613  0.        )
	(-2.07142857  0.95599671  0.        )
	(-2.07142857  0.86650143  0.        )
	(-2.07142857  0.75        0.        )
	(-2.07142857  0.63349857  0.        )
	(-2.07142857  0.54400329  0.        )
	(-2.07142857  0.47525387  0.        )
	(-2.07142857  0.42244123  0.        )
	(-2.07142857  0.38187106  0.        )
	(-2.07142857  0.35070545  0.        )
	(-2.07142857  0.32676433  0.        )
	(-2.07142857  0.30837298  0.        )
	(-2.07142857  0.29424493  0.        )
	(-2.07142857  0.2833919   0.        )
	(-2.07142857  0.2750547   0.        )
	(-2.07142857  0.26865014  0.        )
	(-2.07142857  0.26373023  0.        )
	(-2.07142857  0.25995079  0.        )
	(-2.07142857  0.25704747  0.        )
	(-2.07142857  0.25481716  0.        )
	(-2.07142857  0.25310386  0.        )
	(-2.07142857  0.25178772  0.        )
	(-2.07142857  0.25077668  0.        )
	(-2.07142857  0.25        0.        )
	(-2.07142857  1.25        0.1       )
	(-2.07142857  1.24922332  0.1       )
	(-2.07142857  1.24821228  0.1       )
	(-2.07142857  1.24689614  0.1       )
	(-2.07142857  1.24518284  0.1       )
	(-2.07142857  1.24295253  0.1       )
	(-2.07142857  1.24004921  0.1       )
	(-2.07142857  1.23626977  0.1       )
	(-2.07142857  1.23134986  0.1       )
	(-2.07142857  1.2249453   0.1       )
	(-2.07142857  1.2166081   0.1       )
	(-2.07142857  1.20575507  0.1       )
	(-2.07142857  1.19162702  0.1       )
	(-2.07142857  1.17323567  0.1       )
	(-2.07142857  1.14929455  0.1       )
	(-2.07142857  1.11812894  0.1       )
	(-2.07142857  1.07755877  0.1       )
	(-2.07142857  1.02474613  0.1       )
	(-2.07142857  0.95599671  0.1       )
	(-2.07142857  0.86650143  0.1       )
	(-2.07142857  0.75        0.1       )
	(-2.07142857  0.63349857  0.1       )
	(-2.07142857  0.54400329  0.1       )
	(-2.07142857  0.47525387  0.1       )
	(-2.07142857  0.42244123  0.1       )
	(-2.07142857  0.38187106  0.1       )
	(-2.07142857  0.35070545  0.1       )
	(-2.07142857  0.32676433  0.1       )
	(-2.07142857  0.30837298  0.1       )
	(-2.07142857  0.29424493  0.1       )
	(-2.07142857  0.2833919   0.1       )
	(-2.07142857  0.2750547   0.1       )
	(-2.07142857  0.26865014  0.1       )
	(-2.07142857  0.26373023  0.1       )
	(-2.07142857  0.25995079  0.1       )
	(-2.07142857  0.25704747  0.1       )
	(-2.07142857  0.25481716  0.1       )
	(-2.07142857  0.25310386  0.1       )
	(-2.07142857  0.25178772  0.1       )
	(-2.07142857  0.25077668  0.1       )
	(-2.07142857  0.25        0.1       )
	(-2.    1.25  0.  )
	(-2.          1.24922332  0.        )
	(-2.          1.24821228  0.        )
	(-2.          1.24689614  0.        )
	(-2.          1.24518284  0.        )
	(-2.          1.24295253  0.        )
	(-2.          1.24004921  0.        )
	(-2.          1.23626977  0.        )
	(-2.          1.23134986  0.        )
	(-2.         1.2249453  0.       )
	(-2.         1.2166081  0.       )
	(-2.          1.20575507  0.        )
	(-2.          1.19162702  0.        )
	(-2.          1.17323567  0.        )
	(-2.          1.14929455  0.        )
	(-2.          1.11812894  0.        )
	(-2.          1.07755877  0.        )
	(-2.          1.02474613  0.        )
	(-2.          0.95599671  0.        )
	(-2.          0.86650143  0.        )
	(-2.    0.75  0.  )
	(-2.          0.63349857  0.        )
	(-2.          0.54400329  0.        )
	(-2.          0.47525387  0.        )
	(-2.          0.42244123  0.        )
	(-2.          0.38187106  0.        )
	(-2.          0.35070545  0.        )
	(-2.          0.32676433  0.        )
	(-2.          0.30837298  0.        )
	(-2.          0.29424493  0.        )
	(-2.         0.2833919  0.       )
	(-2.         0.2750547  0.       )
	(-2.          0.26865014  0.        )
	(-2.          0.26373023  0.        )
	(-2.          0.25995079  0.        )
	(-2.          0.25704747  0.        )
	(-2.          0.25481716  0.        )
	(-2.          0.25310386  0.        )
	(-2.          0.25178772  0.        )
	(-2.          0.25077668  0.        )
	(-2.    0.25  0.  )
	(-2.    1.25  0.1 )
	(-2.          1.24922332  0.1       )
	(-2.          1.24821228  0.1       )
	(-2.          1.24689614  0.1       )
	(-2.          1.24518284  0.1       )
	(-2.          1.24295253  0.1       )
	(-2.          1.24004921  0.1       )
	(-2.          1.23626977  0.1       )
	(-2.          1.23134986  0.1       )
	(-2.         1.2249453  0.1      )
	(-2.         1.2166081  0.1      )
	(-2.          1.20575507  0.1       )
	(-2.          1.19162702  0.1       )
	(-2.          1.17323567  0.1       )
	(-2.          1.14929455  0.1       )
	(-2.          1.11812894  0.1       )
	(-2.          1.07755877  0.1       )
	(-2.          1.02474613  0.1       )
	(-2.          0.95599671  0.1       )
	(-2.          0.86650143  0.1       )
	(-2.    0.75  0.1 )
	(-2.          0.63349857  0.1       )
	(-2.          0.54400329  0.1       )
	(-2.          0.47525387  0.1       )
	(-2.          0.42244123  0.1       )
	(-2.          0.38187106  0.1       )
	(-2.          0.35070545  0.1       )
	(-2.          0.32676433  0.1       )
	(-2.          0.30837298  0.1       )
	(-2.          0.29424493  0.1       )
	(-2.         0.2833919  0.1      )
	(-2.         0.2750547  0.1      )
	(-2.          0.26865014  0.1       )
	(-2.          0.26373023  0.1       )
	(-2.          0.25995079  0.1       )
	(-2.          0.25704747  0.1       )
	(-2.          0.25481716  0.1       )
	(-2.          0.25310386  0.1       )
	(-2.          0.25178772  0.1       )
	(-2.          0.25077668  0.1       )
	(-2.    0.25  0.1 )
	(-1.92857143  1.25        0.        )
	(-1.92857143  1.24922332  0.        )
	(-1.92857143  1.24821228  0.        )
	(-1.92857143  1.24689614  0.        )
	(-1.92857143  1.24518284  0.        )
	(-1.92857143  1.24295253  0.        )
	(-1.92857143  1.24004921  0.        )
	(-1.92857143  1.23626977  0.        )
	(-1.92857143  1.23134986  0.        )
	(-1.92857143  1.2249453   0.        )
	(-1.92857143  1.2166081   0.        )
	(-1.92857143  1.20575507  0.        )
	(-1.92857143  1.19162702  0.        )
	(-1.92857143  1.17323567  0.        )
	(-1.92857143  1.14929455  0.        )
	(-1.92857143  1.11812894  0.        )
	(-1.92857143  1.07755877  0.        )
	(-1.92857143  1.02474613  0.        )
	(-1.92857143  0.95599671  0.        )
	(-1.92857143  0.86650143  0.        )
	(-1.92857143  0.75        0.        )
	(-1.92857143  0.63349857  0.        )
	(-1.92857143  0.54400329  0.        )
	(-1.92857143  0.47525387  0.        )
	(-1.92857143  0.42244123  0.        )
	(-1.92857143  0.38187106  0.        )
	(-1.92857143  0.35070545  0.        )
	(-1.92857143  0.32676433  0.        )
	(-1.92857143  0.30837298  0.        )
	(-1.92857143  0.29424493  0.        )
	(-1.92857143  0.2833919   0.        )
	(-1.92857143  0.2750547   0.        )
	(-1.92857143  0.26865014  0.        )
	(-1.92857143  0.26373023  0.        )
	(-1.92857143  0.25995079  0.        )
	(-1.92857143  0.25704747  0.        )
	(-1.92857143  0.25481716  0.        )
	(-1.92857143  0.25310386  0.        )
	(-1.92857143  0.25178772  0.        )
	(-1.92857143  0.25077668  0.        )
	(-1.92857143  0.25        0.        )
	(-1.92857143  1.25        0.1       )
	(-1.92857143  1.24922332  0.1       )
	(-1.92857143  1.24821228  0.1       )
	(-1.92857143  1.24689614  0.1       )
	(-1.92857143  1.24518284  0.1       )
	(-1.92857143  1.24295253  0.1       )
	(-1.92857143  1.24004921  0.1       )
	(-1.92857143  1.23626977  0.1       )
	(-1.92857143  1.23134986  0.1       )
	(-1.92857143  1.2249453   0.1       )
	(-1.92857143  1.2166081   0.1       )
	(-1.92857143  1.20575507  0.1       )
	(-1.92857143  1.19162702  0.1       )
	(-1.92857143  1.17323567  0.1       )
	(-1.92857143  1.14929455  0.1       )
	(-1.92857143  1.11812894  0.1       )
	(-1.92857143  1.07755877  0.1       )
	(-1.92857143  1.02474613  0.1       )
	(-1.92857143  0.95599671  0.1       )
	(-1.92857143  0.86650143  0.1       )
	(-1.92857143  0.75        0.1       )
	(-1.92857143  0.63349857  0.1       )
	(-1.92857143  0.54400329  0.1       )
	(-1.92857143  0.47525387  0.1       )
	(-1.92857143  0.42244123  0.1       )
	(-1.92857143  0.38187106  0.1       )
	(-1.92857143  0.35070545  0.1       )
	(-1.92857143  0.32676433  0.1       )
	(-1.92857143  0.30837298  0.1       )
	(-1.92857143  0.29424493  0.1       )
	(-1.92857143  0.2833919   0.1       )
	(-1.92857143  0.2750547   0.1       )
	(-1.92857143  0.26865014  0.1       )
	(-1.92857143  0.26373023  0.1       )
	(-1.92857143  0.25995079  0.1       )
	(-1.92857143  0.25704747  0.1       )
	(-1.92857143  0.25481716  0.1       )
	(-1.92857143  0.25310386  0.1       )
	(-1.92857143  0.25178772  0.1       )
	(-1.92857143  0.25077668  0.1       )
	(-1.92857143  0.25        0.1       )
	(-1.85714286  1.25        0.        )
	(-1.85714286  1.24922332  0.        )
	(-1.85714286  1.24821228  0.        )
	(-1.85714286  1.24689614  0.        )
	(-1.85714286  1.24518284  0.        )
	(-1.85714286  1.24295253  0.        )
	(-1.85714286  1.24004921  0.        )
	(-1.85714286  1.23626977  0.        )
	(-1.85714286  1.23134986  0.        )
	(-1.85714286  1.2249453   0.        )
	(-1.85714286  1.2166081   0.        )
	(-1.85714286  1.20575507  0.        )
	(-1.85714286  1.19162702  0.        )
	(-1.85714286  1.17323567  0.        )
	(-1.85714286  1.14929455  0.        )
	(-1.85714286  1.11812894  0.        )
	(-1.85714286  1.07755877  0.        )